*SPEF "IEEE 1481.1999"
*DESIGN "half_adder"
*DATE "17:21:11 Saturday June 24, 2023"
*VENDOR "unknown"
*PROGRAM "qrouter"
*VERSION "unknown"
*DESIGN_FLOW "qflow"
*DIVIDER /
*DELIMITER :
*BUS_DELIMITER <>
*T_UNIT 1 PS
*C_UNIT 1 FF
*R_UNIT 1 OHM
*L_UNIT 1 HENRY

*NAME_MAP
*1 b
*2 AND2X2_1
*3 XOR2X1_1
*4 a
*5 AND2X2_1
*6 XOR2X1_1
*7 _1_
*8 XOR2X1_1
*9 BUFX2_2
*10 _0_
*11 AND2X2_1
*12 BUFX2_1
*13 c
*14 BUFX2_1
*15 s
*16 BUFX2_2

*PORTS
*1 I
*4 I
*13 O
*15 O

*D_NET *1 0.00067392
*CONN
*P *1 O
*I *2:A I *L 0.021674
*I *3:A I *L 0.0535547
*CAP
1 1_1 0.0002592
2 1_2 0.00027648
3 1_3 0.00013824
*RES
1 *1 1_1 1.8
2 1_1 1_2 0.96
3 1_2 *2:A 0
4 1_1 1_3 0.48
5 1_3 *3:A 0
*END
*D_NET *4 0.0008064
*CONN
*P *4 O
*I *5:B I *L 0.0214177
*I *6:B I *L 0.0637104
*CAP
1 4_1 0.000243
2 4_2 0.000432
3 4_3 0.0001314
*RES
1 *4 4_1 0.54
2 4_1 4_2 0.96
3 4_2 *5:B 0
4 4_1 4_3 0.7
5 4_3 *6:B 0
*END
*D_NET *7 0.0006912
*CONN
*I *8:Y O *D XOR2X1
*I *9:A I *L 0.0161375
*CAP
1 7_1 0.0006912
*RES
1 *8:Y 7_1 2.76
2 7_1 *9:A 0
*END
*D_NET *10 0.000288
*CONN
*I *11:Y O *D AND2X2
*I *12:A I *L 0.0161375
*CAP
1 10_1 0.000288
*RES
1 *11:Y 10_1 0.64
2 10_1 *12:A 0
*END
*D_NET *13 0.0003294
*CONN
*I *14:Y O *D BUFX2
*P *13 I
*CAP
1 13_1 0.0003294
*RES
1 *14:Y 13_1 1.14
2 13_1 *13 0
*END
*D_NET *15 0.00096156
*CONN
*I *16:Y O *D BUFX2
*P *15 I
*CAP
1 15_1 0.00096156
*RES
1 *16:Y 15_1 4.4
2 15_1 *15 0
*END
